
     RDKit          3D

 44 45  0  0  0  0  0  0  0  0999 V2000
  -10.5841    3.7543  -12.7664 C   0  0  0  0  0  0  0  0  0  0  0  0
  -11.2683    3.7086  -11.3867 C   0  0  0  0  0  0  0  0  0  0  0  0
  -10.4258    4.3702  -10.4935 N   0  0  0  0  0  0  0  0  0  0  0  0
  -10.6850    4.5505   -9.1569 C   0  0  1  0  0  0  0  0  0  0  0  0
  -11.9608    5.3925   -8.9946 C   0  0  0  0  0  0  0  0  0  0  0  0
  -11.9775    6.1095   -7.7795 N   0  0  0  0  0  0  0  0  0  0  0  0
  -12.8759    7.1409   -7.5651 C   0  0  0  0  0  0  0  0  0  0  0  0
  -12.3091    8.5395   -7.6708 C   0  0  0  0  0  0  0  0  0  0  0  0
  -13.4218    9.5486   -7.4039 C   0  0  0  0  0  0  0  0  0  0  0  0
  -12.8572   10.8170   -7.5109 O   0  0  0  0  0  0  0  0  0  0  0  0
  -13.7636   11.8323   -7.2863 C   0  0  0  0  0  0  0  0  0  0  0  0
  -11.1076    5.4453   -6.5024 S   0  0  0  0  0  6  0  0  0  0  0  0
  -11.9245    5.5221   -5.2401 O   0  0  0  0  0  0  0  0  0  0  0  0
   -9.7650    6.0774   -6.2704 O   0  0  0  0  0  0  0  0  0  0  0  0
  -10.8938    3.7224   -6.9219 C   0  0  0  0  0  0  0  0  0  0  0  0
  -10.8639    2.2482   -6.0737 S   0  0  0  0  0  0  0  0  0  0  0  0
  -10.5925    1.1993   -7.3866 C   0  0  0  0  0  0  0  0  0  0  0  0
  -10.4362   -0.5679   -7.3355 S   0  0  0  0  0  6  0  0  0  0  0  0
   -9.1289   -1.0074   -6.3167 N   0  0  0  0  0  0  0  0  0  0  0  0
  -11.7385   -1.0729   -6.7714 O   0  0  0  0  0  0  0  0  0  0  0  0
  -10.2462   -1.0344   -8.7461 O   0  0  0  0  0  0  0  0  0  0  0  0
  -10.5319    2.0318   -8.4617 C   0  0  0  0  0  0  0  0  0  0  0  0
  -10.6897    3.3692   -8.2318 C   0  0  0  0  0  0  0  0  0  0  0  0
   -9.6206    3.2217  -12.7544 H   0  0  0  0  0  0  0  0  0  0  0  0
  -10.3539    4.8177  -13.0545 H   0  0  0  0  0  0  0  0  0  0  0  0
  -11.2031    3.3427  -13.5609 H   0  0  0  0  0  0  0  0  0  0  0  0
  -12.1975    4.3380  -11.5443 H   0  0  0  0  0  0  0  0  0  0  0  0
  -11.5058    2.6605  -11.2307 H   0  0  0  0  0  0  0  0  0  0  0  0
   -9.6517    4.9040  -10.9216 H   0  0  0  0  0  0  0  0  0  0  0  0
   -9.8795    5.2417   -8.7526 H   0  0  0  0  0  0  0  0  0  0  0  0
  -11.9606    6.0887   -9.8572 H   0  0  0  0  0  0  0  0  0  0  0  0
  -12.8129    4.6658   -9.1016 H   0  0  0  0  0  0  0  0  0  0  0  0
  -13.7705    7.0417   -8.2426 H   0  0  0  0  0  0  0  0  0  0  0  0
  -13.3139    7.0688   -6.5324 H   0  0  0  0  0  0  0  0  0  0  0  0
  -11.8988    8.6758   -8.6702 H   0  0  0  0  0  0  0  0  0  0  0  0
  -11.5826    8.6524   -6.8404 H   0  0  0  0  0  0  0  0  0  0  0  0
  -13.8300    9.4428   -6.3865 H   0  0  0  0  0  0  0  0  0  0  0  0
  -14.2682    9.3999   -8.1065 H   0  0  0  0  0  0  0  0  0  0  0  0
  -14.2156   11.7746   -6.2605 H   0  0  0  0  0  0  0  0  0  0  0  0
  -13.2059   12.7933   -7.3722 H   0  0  0  0  0  0  0  0  0  0  0  0
  -14.5383   11.8212   -8.0736 H   0  0  0  0  0  0  0  0  0  0  0  0
   -8.5279   -1.6791   -6.8024 H   0  0  0  0  0  0  0  0  0  0  0  0
   -8.6766   -0.2020   -5.8745 H   0  0  0  0  0  0  0  0  0  0  0  0
  -10.3529    1.5762   -9.4745 H   0  0  0  0  0  0  0  0  0  0  0  0
  1  2  1  0
  2  3  1  0
  3  4  1  0
  4  5  1  0
  5  6  1  0
  6  7  1  0
  7  8  1  0
  8  9  1  0
  9 10  1  0
 10 11  1  0
  6 12  1  0
 12 13  2  0
 12 14  2  0
 12 15  1  0
 15 16  1  0
 16 17  1  0
 17 18  1  0
 18 19  1  0
 18 20  2  0
 18 21  2  0
 17 22  2  0
 22 23  1  0
 23  4  1  0
 23 15  2  0
  1 24  1  0
  1 25  1  0
  1 26  1  0
  2 27  1  0
  2 28  1  0
  3 29  1  0
  4 30  1  1
  5 31  1  0
  5 32  1  0
  7 33  1  0
  7 34  1  0
  8 35  1  0
  8 36  1  0
  9 37  1  0
  9 38  1  0
 11 39  1  0
 11 40  1  0
 11 41  1  0
 19 42  1  0
 19 43  1  0
 22 44  1  0
M  END
$$$$
