
Marvin  11220711552D          

 23 24  0  0  0  0            999 V2000
    9.6698   -9.5097    0.0000 C   0  0  0  0  0  0  0  0  0  0  0  0
   11.0988   -8.6847    0.0000 C   0  0  0  0  0  0  0  0  0  0  0  0
   11.0988   -9.5097    0.0000 C   0  0  0  0  0  0  0  0  0  0  0  0
   11.8834   -9.7646    0.0000 C   0  0  0  0  0  0  0  0  0  0  0  0
   11.8834   -8.4297    0.0000 S   0  0  0  0  0  0  0  0  0  0  0  0
   12.3683   -9.0972    0.0000 C   0  0  0  0  0  0  0  0  0  0  0  0
   14.0183   -9.0972    0.0000 N   0  0  0  0  0  0  0  0  0  0  0  0
   10.3843   -9.9222    0.0000 C   0  0  1  0  0  0  0  0  0  0  0  0
    9.6698   -8.6847    0.0000 N   0  0  0  0  0  0  0  0  0  0  0  0
    8.9554   -8.2722    0.0000 C   0  0  0  0  0  0  0  0  0  0  0  0
    8.2409   -8.6847    0.0000 C   0  0  0  0  0  0  0  0  0  0  0  0
    7.5264   -8.2722    0.0000 C   0  0  0  0  0  0  0  0  0  0  0  0
    6.8120   -8.6847    0.0000 O   0  0  0  0  0  0  0  0  0  0  0  0
    6.0975   -8.2722    0.0000 C   0  0  0  0  0  0  0  0  0  0  0  0
    9.8009   -7.6888    0.0000 O   0  0  0  0  0  0  0  0  0  0  0  0
   10.3843   -8.2722    0.0000 S   0  0  3  0  0  0  0  0  0  0  0  0
   10.9677   -7.6888    0.0000 O   0  0  0  0  0  0  0  0  0  0  0  0
   13.1933   -8.2722    0.0000 O   0  0  0  0  0  0  0  0  0  0  0  0
   13.1933   -9.0972    0.0000 S   0  0  3  0  0  0  0  0  0  0  0  0
   13.1933   -9.9222    0.0000 O   0  0  0  0  0  0  0  0  0  0  0  0
   10.3843  -10.7472    0.0000 N   0  0  0  0  0  0  0  0  0  0  0  0
   11.0988  -11.1597    0.0000 C   0  0  0  0  0  0  0  0  0  0  0  0
   11.0988  -11.9847    0.0000 C   0  0  0  0  0  0  0  0  0  0  0  0
 16  9  1  0  0  0  0
 16  2  1  0  0  0  0
  9  1  1  0  0  0  0
  1  8  1  0  0  0  0
  8  3  1  0  0  0  0
  5  2  1  0  0  0  0
  2  3  2  0  0  0  0
  3  4  1  0  0  0  0
  5  6  1  0  0  0  0
  4  6  2  0  0  0  0
  6 19  1  0  0  0  0
 19  7  1  0  0  0  0
  8 21  1  1  0  0  0
  9 10  1  0  0  0  0
 10 11  1  0  0  0  0
 11 12  1  0  0  0  0
 12 13  1  0  0  0  0
 13 14  1  0  0  0  0
 16 15  2  0  0  0  0
 16 17  2  0  0  0  0
 19 18  2  0  0  0  0
 19 20  2  0  0  0  0
 21 22  1  0  0  0  0
 22 23  1  0  0  0  0
M  END
> <ID>
CHEBI:3176

> <NAME>
brinzolamide

> <STAR>
3

> <SECONDARY_ID>
CHEBI:499968

> <SYNONYM>
Brinzolamide; Azopt

> <IUPAC_NAME>
(4R)-4-(ethylamino)-2-(3-methoxypropyl)-3,4-dihydro-2H-thieno[3,2-e][1,2]thiazine-6-sulfonamide 1,1-dioxide

> <FORMULA>
C12H21N3O5S3

> <MASS>
383.50700

> <MONOISOTOPIC_MASS>
383.06433

> <CHARGE>
0

> <SMILES>
CCN[C@H]1CN(CCCOC)S(=O)(=O)c2sc(cc12)S(N)(=O)=O

> <INCHI>
InChI=1S/C12H21N3O5S3/c1-3-14-10-8-15(5-4-6-20-2)23(18,19)12-9(10)7-11(21-12)22(13,16)17/h7,10,14H,3-6,8H2,1-2H3,(H2,13,16,17)/t10-/m0/s1

> <INCHIKEY>
HCRKCZRJWPKOAR-JTQLQIEISA-N

> <BEILSTEIN_REGISTRY_NUMBER>
9651552

> <CAS_REGISTRY_NUMBER>
138890-62-7

> <CHEMIDPLUS>
138890-62-7

> <DRUGBANK_ACCESSION>
DB01194

> <KEGG_COMPOUND_ACCESSION>
C07760

> <KEGG_DRUG_ACCESSION>
D00652

> <LINCS_ACCESSION>
LSM-3677

> <PDBECHEM_ACCESSION>
BZ1

> <WIKIPEDIA_ACCESSION>
Brinzolamide

$$$$
