CT1078642529


 57 60  0     1  0  0  0  0  0999 V2000
   -0.5197   -5.1084   -0.0198 O   0  0  0  0  0  0  0  0  0  0  0  0
   -0.0163    1.3533    0.0095 O   0  0  0  0  0  0  0  0  0  0  0  0
   -2.3830   -0.0531    0.0270 O   0  0  0  0  0  0  0  0  0  0  0  0
    2.2949   -9.4559   -1.3256 N   0  0  0  0  0  0  0  0  0  0  0  0
    1.7308   -6.6256   -1.2266 C   0  0  0  0  0  0  0  0  0  0  0  0
    2.2327   -5.1822   -1.3018 C   0  0  0  0  0  0  0  0  0  0  0  0
    1.8117   -4.4293   -0.0381 C   0  0  3  0  0  0  0  0  0  0  0  0
    2.0421   -7.3448   -2.5421 C   0  0  0  0  0  0  0  0  0  0  0  0
    2.4346   -7.3528   -0.0775 C   0  0  0  0  0  0  0  0  0  0  0  0
    1.5929   -8.8041   -2.4386 C   0  0  0  0  0  0  0  0  0  0  0  0
    1.9740   -8.8118   -0.0455 C   0  0  0  0  0  0  0  0  0  0  0  0
    2.4109   -3.0163   -0.0366 C   0  0  0  0  0  0  0  0  0  0  0  0
    0.3159   -4.2291   -0.0227 C   0  0  0  0  0  0  0  0  0  0  0  0
    1.2414   -2.0609   -0.0204 C   0  0  0  0  0  0  0  0  0  0  0  0
    0.0469   -2.7846   -0.0126 C   0  0  0  0  0  0  0  0  0  0  0  0
    1.9929  -10.8929   -1.2822 C   0  0  0  0  0  0  0  0  0  0  0  0
    1.2136   -0.6813   -0.0132 C   0  0  0  0  0  0  0  0  0  0  0  0
   -1.1784   -2.0958    0.0035 C   0  0  0  0  0  0  0  0  0  0  0  0
    2.9090  -11.5691   -0.2950 C   0  0  0  0  0  0  0  0  0  0  0  0
    0.0021   -0.0041    0.0020 C   0  0  0  0  0  0  0  0  0  0  0  0
   -1.1964   -0.7175    0.0115 C   0  0  0  0  0  0  0  0  0  0  0  0
    2.5323  -11.6854    1.0300 C   0  0  0  0  0  0  0  0  0  0  0  0
    4.1235  -12.0780   -0.7154 C   0  0  0  0  0  0  0  0  0  0  0  0
    3.3726  -12.3056    1.9356 C   0  0  0  0  0  0  0  0  0  0  0  0
    4.9638  -12.6982    0.1902 C   0  0  0  0  0  0  0  0  0  0  0  0
    4.5894  -12.8099    1.5162 C   0  0  0  0  0  0  0  0  0  0  0  0
    1.2479    2.0193    0.0010 C   0  0  0  0  0  0  0  0  0  0  0  0
   -3.5710   -0.8472    0.0343 C   0  0  0  0  0  0  0  0  0  0  0  0
    0.6543   -6.6285   -1.0557 H   0  0  0  0  0  0  0  0  0  0  0  0
    3.3198   -5.1792   -1.3814 H   0  0  0  0  0  0  0  0  0  0  0  0
    1.8031   -4.6932   -2.1762 H   0  0  0  0  0  0  0  0  0  0  0  0
    2.1302   -4.9755    0.8498 H   0  0  0  0  0  0  0  0  0  0  0  0
    3.5133   -7.3149   -0.2293 H   0  0  0  0  0  0  0  0  0  0  0  0
    2.1823   -6.8707    0.8670 H   0  0  0  0  0  0  0  0  0  0  0  0
    1.5094   -6.8570   -3.3584 H   0  0  0  0  0  0  0  0  0  0  0  0
    3.1146   -7.3068   -2.7326 H   0  0  0  0  0  0  0  0  0  0  0  0
    0.8973   -8.8493    0.1201 H   0  0  0  0  0  0  0  0  0  0  0  0
    2.4841   -9.3361    0.7627 H   0  0  0  0  0  0  0  0  0  0  0  0
    1.8261   -9.3226   -3.3686 H   0  0  0  0  0  0  0  0  0  0  0  0
    0.5180   -8.8415   -2.2618 H   0  0  0  0  0  0  0  0  0  0  0  0
    3.0255   -2.8711    0.8518 H   0  0  0  0  0  0  0  0  0  0  0  0
    3.0083   -2.8618   -0.9352 H   0  0  0  0  0  0  0  0  0  0  0  0
    0.9572  -11.0374   -0.9748 H   0  0  0  0  0  0  0  0  0  0  0  0
    2.1420  -11.3255   -2.2715 H   0  0  0  0  0  0  0  0  0  0  0  0
    2.1395   -0.1254   -0.0190 H   0  0  0  0  0  0  0  0  0  0  0  0
   -2.1069   -2.6473    0.0092 H   0  0  0  0  0  0  0  0  0  0  0  0
    1.5816  -11.2914    1.3576 H   0  0  0  0  0  0  0  0  0  0  0  0
    4.4158  -11.9913   -1.7515 H   0  0  0  0  0  0  0  0  0  0  0  0
    3.0785  -12.3959    2.9709 H   0  0  0  0  0  0  0  0  0  0  0  0
    5.9126  -13.0961   -0.1384 H   0  0  0  0  0  0  0  0  0  0  0  0
    5.2461  -13.2941    2.2238 H   0  0  0  0  0  0  0  0  0  0  0  0
    1.0905    3.0978    0.0083 H   0  0  0  0  0  0  0  0  0  0  0  0
    1.8173    1.7292    0.8840 H   0  0  0  0  0  0  0  0  0  0  0  0
    1.8003    1.7388   -0.8958 H   0  0  0  0  0  0  0  0  0  0  0  0
   -3.5965   -1.4712   -0.8590 H   0  0  0  0  0  0  0  0  0  0  0  0
   -3.5788   -1.4814    0.9208 H   0  0  0  0  0  0  0  0  0  0  0  0
   -4.4441   -0.1947    0.0467 H   0  0  0  0  0  0  0  0  0  0  0  0
  1 13  2  0  0  0  0
  2 20  1  0  0  0  0
  2 27  1  0  0  0  0
  3 21  1  0  0  0  0
  3 28  1  0  0  0  0
  4 10  1  0  0  0  0
  4 11  1  0  0  0  0
  4 16  1  0  0  0  0
  5  6  1  0  0  0  0
  5  8  1  0  0  0  0
  5  9  1  0  0  0  0
  5 29  1  0  0  0  0
  6  7  1  0  0  0  0
  6 30  1  0  0  0  0
  6 31  1  0  0  0  0
  7 12  1  0  0  0  0
  7 13  1  0  0  0  0
  7 32  1  0  0  0  0
  8 10  1  0  0  0  0
  8 35  1  0  0  0  0
  8 36  1  0  0  0  0
  9 11  1  0  0  0  0
  9 33  1  0  0  0  0
  9 34  1  0  0  0  0
 10 39  1  0  0  0  0
 10 40  1  0  0  0  0
 11 37  1  0  0  0  0
 11 38  1  0  0  0  0
 12 14  1  0  0  0  0
 12 41  1  0  0  0  0
 12 42  1  0  0  0  0
 13 15  1  0  0  0  0
 14 15  1  0  0  0  0
 14 17  2  0  0  0  0
 15 18  2  0  0  0  0
 16 19  1  0  0  0  0
 16 43  1  0  0  0  0
 16 44  1  0  0  0  0
 17 20  1  0  0  0  0
 17 45  1  0  0  0  0
 18 21  1  0  0  0  0
 18 46  1  0  0  0  0
 19 22  2  0  0  0  0
 19 23  1  0  0  0  0
 20 21  2  0  0  0  0
 22 24  1  0  0  0  0
 22 47  1  0  0  0  0
 23 25  2  0  0  0  0
 23 48  1  0  0  0  0
 24 26  2  0  0  0  0
 24 49  1  0  0  0  0
 25 26  1  0  0  0  0
 25 50  1  0  0  0  0
 26 51  1  0  0  0  0
 27 52  1  0  0  0  0
 27 53  1  0  0  0  0
 27 54  1  0  0  0  0
 28 55  1  0  0  0  0
 28 56  1  0  0  0  0
 28 57  1  0  0  0  0
M  END
$$$$
