
     RDKit          3D

 28 31  0  0  0  0  0  0  0  0999 V2000
   62.0265  -61.6164   80.4634 C   0  0  0  0  0  0  0  0  0  0  0  0
   62.8658  -60.4838   80.6467 O   0  0  0  0  0  0  0  0  0  0  0  0
   62.7709  -59.5347   79.6090 C   0  0  0  0  0  0  0  0  0  0  0  0
   63.7941  -58.6154   79.3417 C   0  0  0  0  0  0  0  0  0  0  0  0
   63.6046  -57.6727   78.3198 C   0  0  0  0  0  0  0  0  0  0  0  0
   62.3280  -57.5086   77.8016 C   0  0  0  0  0  0  0  0  0  0  0  0
   61.2178  -58.2798   78.1674 C   0  0  0  0  0  0  0  0  0  0  0  0
   61.5231  -59.4053   79.0222 C   0  0  0  0  0  0  0  0  0  0  0  0
   60.5225  -60.1939   79.4918 O   0  0  0  0  0  0  0  0  0  0  0  0
   60.8125  -60.9623   80.6351 C   0  0  0  0  0  0  0  0  0  0  0  0
   62.4539  -56.8056   76.5442 C   0  0  0  0  0  0  0  0  0  0  0  0
   61.5151  -56.1246   76.1319 O   0  0  0  0  0  0  0  0  0  0  0  0
   63.9089  -56.4908   76.3156 C   0  0  1  0  0  0  0  0  0  0  0  0
   64.1435  -54.9659   75.9704 C   0  0  0  0  0  0  0  0  0  0  0  0
   65.5697  -54.4719   75.6306 C   0  0  0  0  0  0  0  0  0  0  0  0
   66.3558  -55.3284   74.6246 C   0  0  0  0  0  0  0  0  0  0  0  0
   67.6552  -54.7727   74.2454 C   0  0  0  0  0  0  0  0  0  0  0  0
   68.1886  -53.7888   75.2597 N   0  0  0  0  0  0  0  0  0  0  0  0
   67.4013  -52.4989   75.0151 C   0  0  0  0  0  0  0  0  0  0  0  0
   66.1008  -52.7230   74.3170 C   0  0  0  0  0  0  0  0  0  0  0  0
   65.9677  -52.6302   72.9080 C   0  0  0  0  0  0  0  0  0  0  0  0
   64.8831  -52.9813   72.2495 C   0  0  0  0  0  0  0  0  0  0  0  0
   63.7351  -53.3920   72.9139 C   0  0  0  0  0  0  0  0  0  0  0  0
   63.8390  -53.7078   74.3124 C   0  0  0  0  0  0  0  0  0  0  0  0
   65.0794  -53.5326   74.9491 C   0  0  0  0  0  0  0  0  0  0  0  0
   67.9067  -54.3064   76.6351 C   0  0  0  0  0  0  0  0  0  0  0  0
   66.4023  -54.1625   76.8705 C   0  0  0  0  0  0  0  0  0  0  0  0
   64.5673  -56.7965   77.6422 C   0  0  0  0  0  0  0  0  0  0  0  0
  1  2  1  0
  2  3  1  0
  3  4  2  0
  4  5  1  0
  5  6  2  0
  6  7  1  0
  7  8  2  0
  8  9  1  0
  9 10  1  0
  6 11  1  0
 11 12  2  0
 11 13  1  0
 13 14  1  1
 14 15  1  0
 15 16  1  0
 16 17  1  0
 17 18  1  0
 18 19  1  0
 19 20  1  0
 20 21  2  0
 21 22  1  0
 22 23  2  0
 23 24  1  0
 24 25  2  0
 18 26  1  0
 26 27  1  0
 13 28  1  0
  8  3  1  0
 27 15  1  0
 28  5  1  0
 25 20  1  0
M  END
$$$$
