
     RDKit          3D

 44 45  0  0  0  0  0  0  0  0999 V2000
  -10.1780    6.5014   -2.2551 C   0  0  0  0  0  0  0  0  0  0  0  0
   -8.8131    6.7605   -1.6306 C   0  0  0  0  0  0  0  0  0  0  0  0
   -8.1900    5.5672   -1.1928 N   0  0  0  0  0  0  0  0  0  0  0  0
   -6.9579    5.7245   -0.4444 C   0  0  1  0  0  0  0  0  0  0  0  0
   -7.1099    6.3820    0.8253 C   0  0  0  0  0  0  0  0  0  0  0  0
   -6.9665    5.7830    2.0804 N   0  0  0  0  0  0  0  0  0  0  0  0
   -7.3929    6.5045    3.1959 C   0  0  0  0  0  0  0  0  0  0  0  0
   -6.2971    6.5824    4.2590 C   0  0  0  0  0  0  0  0  0  0  0  0
   -6.8113    7.4051    5.4327 C   0  0  0  0  0  0  0  0  0  0  0  0
   -5.8442    7.5174    6.4240 O   0  0  0  0  0  0  0  0  0  0  0  0
   -6.3258    8.2876    7.4573 C   0  0  0  0  0  0  0  0  0  0  0  0
   -7.2979    4.1084    2.0185 S   0  0  0  0  0  6  0  0  0  0  0  0
   -6.8250    3.3763    3.2422 O   0  0  0  0  0  0  0  0  0  0  0  0
   -8.7075    3.7656    1.7080 O   0  0  0  0  0  0  0  0  0  0  0  0
   -6.3256    3.5938    0.6115 C   0  0  0  0  0  0  0  0  0  0  0  0
   -5.3401    2.1806    0.2096 S   0  0  0  0  0  0  0  0  0  0  0  0
   -4.8088    2.7710   -1.3852 C   0  0  0  0  0  0  0  0  0  0  0  0
   -3.7543    1.9141   -2.4879 S   0  0  0  0  0  6  0  0  0  0  0  0
   -4.4185    0.4389   -3.0238 N   0  0  0  0  0  0  0  0  0  0  0  0
   -3.3894    2.7537   -3.6658 O   0  0  0  0  0  0  0  0  0  0  0  0
   -2.4836    1.6353   -1.7086 O   0  0  0  0  0  0  0  0  0  0  0  0
   -5.4077    3.9810   -1.5023 C   0  0  0  0  0  0  0  0  0  0  0  0
   -6.1859    4.4247   -0.5007 C   0  0  0  0  0  0  0  0  0  0  0  0
  -10.9418    6.4708   -1.4420 H   0  0  0  0  0  0  0  0  0  0  0  0
  -10.3747    7.3359   -2.9590 H   0  0  0  0  0  0  0  0  0  0  0  0
  -10.1264    5.5740   -2.8299 H   0  0  0  0  0  0  0  0  0  0  0  0
   -8.8802    7.4952   -0.8157 H   0  0  0  0  0  0  0  0  0  0  0  0
   -8.1965    7.2921   -2.4264 H   0  0  0  0  0  0  0  0  0  0  0  0
   -8.8840    4.9444   -0.7441 H   0  0  0  0  0  0  0  0  0  0  0  0
   -6.3485    6.4380   -1.1040 H   0  0  0  0  0  0  0  0  0  0  0  0
   -8.1860    6.8064    0.8445 H   0  0  0  0  0  0  0  0  0  0  0  0
   -6.5292    7.3681    0.8854 H   0  0  0  0  0  0  0  0  0  0  0  0
   -8.3312    6.1574    3.6442 H   0  0  0  0  0  0  0  0  0  0  0  0
   -7.5902    7.5635    2.8887 H   0  0  0  0  0  0  0  0  0  0  0  0
   -5.3778    7.0579    3.8850 H   0  0  0  0  0  0  0  0  0  0  0  0
   -6.0913    5.5304    4.5864 H   0  0  0  0  0  0  0  0  0  0  0  0
   -7.7111    6.8672    5.8449 H   0  0  0  0  0  0  0  0  0  0  0  0
   -7.1921    8.3758    5.0641 H   0  0  0  0  0  0  0  0  0  0  0  0
   -7.2451    7.8738    7.9333 H   0  0  0  0  0  0  0  0  0  0  0  0
   -6.5572    9.3232    7.1354 H   0  0  0  0  0  0  0  0  0  0  0  0
   -5.5345    8.3885    8.2517 H   0  0  0  0  0  0  0  0  0  0  0  0
   -3.7813   -0.3599   -2.9202 H   0  0  0  0  0  0  0  0  0  0  0  0
   -4.9407    0.4822   -3.9005 H   0  0  0  0  0  0  0  0  0  0  0  0
   -5.1997    4.5432   -2.4713 H   0  0  0  0  0  0  0  0  0  0  0  0
  1  2  1  0
  2  3  1  0
  3  4  1  0
  4  5  1  0
  5  6  1  0
  6  7  1  0
  7  8  1  0
  8  9  1  0
  9 10  1  0
 10 11  1  0
  6 12  1  0
 12 13  2  0
 12 14  2  0
 12 15  1  0
 15 16  1  0
 16 17  1  0
 17 18  1  0
 18 19  1  0
 18 20  2  0
 18 21  2  0
 17 22  2  0
 22 23  1  0
 23  4  1  0
 23 15  2  0
  1 24  1  0
  1 25  1  0
  1 26  1  0
  2 27  1  0
  2 28  1  0
  3 29  1  0
  4 30  1  6
  5 31  1  0
  5 32  1  0
  7 33  1  0
  7 34  1  0
  8 35  1  0
  8 36  1  0
  9 37  1  0
  9 38  1  0
 11 39  1  0
 11 40  1  0
 11 41  1  0
 19 42  1  0
 19 43  1  0
 22 44  1  0
M  END
$$$$
