
     RDKit          3D

 57 60  0  0  0  0  0  0  0  0999 V2000
    0.3488    7.9248   -5.2936 C   0  0  0  0  0  0  0  0  0  0  0  0
    1.1881    9.0306   -5.1365 O   0  0  0  0  0  0  0  0  0  0  0  0
    0.9771   10.0020   -4.1451 C   0  0  0  0  0  0  0  0  0  0  0  0
   -0.0819    9.9121   -3.2665 C   0  0  0  0  0  0  0  0  0  0  0  0
   -0.3124   10.8615   -2.2757 C   0  0  0  0  0  0  0  0  0  0  0  0
    0.5284   11.9405   -2.1414 C   0  0  0  0  0  0  0  0  0  0  0  0
    1.5900   12.0285   -3.0245 C   0  0  0  0  0  0  0  0  0  0  0  0
    1.8181   11.0852   -4.0082 C   0  0  0  0  0  0  0  0  0  0  0  0
    2.8903   11.2032   -4.8760 O   0  0  0  0  0  0  0  0  0  0  0  0
    3.8128   12.2560   -4.8376 C   0  0  0  0  0  0  0  0  0  0  0  0
    0.0639   12.7813   -1.0189 C   0  0  0  0  0  0  0  0  0  0  0  0
    0.2737   13.9854   -0.8734 O   0  0  0  0  0  0  0  0  0  0  0  0
   -0.6862   11.7820   -0.1775 C   0  0  1  0  0  0  0  0  0  0  0  0
   -1.5756   12.4366    0.8143 C   0  0  0  0  0  0  0  0  0  0  0  0
   -2.3479   11.5136    1.6804 C   0  0  0  0  0  0  0  0  0  0  0  0
   -3.1907   12.3669    2.6197 C   0  0  0  0  0  0  0  0  0  0  0  0
   -4.0718   11.4016    3.3726 C   0  0  0  0  0  0  0  0  0  0  0  0
   -3.3740   10.4423    4.1321 N   0  0  0  0  0  0  0  0  0  0  0  0
   -3.3670   10.6439    5.5409 C   0  0  0  0  0  0  0  0  0  0  0  0
   -4.7129   10.6315    6.1633 C   0  0  0  0  0  0  0  0  0  0  0  0
   -4.8668   11.0289    7.4880 C   0  0  0  0  0  0  0  0  0  0  0  0
   -6.0864   11.0372    8.1247 C   0  0  0  0  0  0  0  0  0  0  0  0
   -7.2155   10.6356    7.4296 C   0  0  0  0  0  0  0  0  0  0  0  0
   -7.1085   10.2343    6.1167 C   0  0  0  0  0  0  0  0  0  0  0  0
   -5.8672   10.2417    5.5184 C   0  0  0  0  0  0  0  0  0  0  0  0
   -2.1874    9.8951    3.5884 C   0  0  0  0  0  0  0  0  0  0  0  0
   -1.4487   10.7122    2.6042 C   0  0  0  0  0  0  0  0  0  0  0  0
   -1.3601   10.9955   -1.2382 C   0  0  0  0  0  0  0  0  0  0  0  0
    0.8299    7.2170   -5.9960 H   0  0  0  0  0  0  0  0  0  0  0  0
    0.1217    7.3883   -4.3584 H   0  0  0  0  0  0  0  0  0  0  0  0
   -0.6365    8.1856   -5.7528 H   0  0  0  0  0  0  0  0  0  0  0  0
   -0.7438    9.0434   -3.3876 H   0  0  0  0  0  0  0  0  0  0  0  0
    2.2609   12.8957   -2.9140 H   0  0  0  0  0  0  0  0  0  0  0  0
    3.2618   13.2204   -4.8912 H   0  0  0  0  0  0  0  0  0  0  0  0
    4.3599   12.1970   -3.8746 H   0  0  0  0  0  0  0  0  0  0  0  0
    4.5197   12.1291   -5.6814 H   0  0  0  0  0  0  0  0  0  0  0  0
    0.0761   11.1614    0.3156 H   0  0  0  0  0  0  0  0  0  0  0  0
   -2.2928   13.1240    0.3029 H   0  0  0  0  0  0  0  0  0  0  0  0
   -0.9533   13.0887    1.4622 H   0  0  0  0  0  0  0  0  0  0  0  0
   -2.9785   10.8040    1.1091 H   0  0  0  0  0  0  0  0  0  0  0  0
   -2.4972   12.8441    3.3266 H   0  0  0  0  0  0  0  0  0  0  0  0
   -3.8448   13.0683    2.0762 H   0  0  0  0  0  0  0  0  0  0  0  0
   -4.6878   10.8854    2.5937 H   0  0  0  0  0  0  0  0  0  0  0  0
   -4.7277   12.0184    4.0175 H   0  0  0  0  0  0  0  0  0  0  0  0
   -2.9534   11.6715    5.7296 H   0  0  0  0  0  0  0  0  0  0  0  0
   -2.6878    9.9520    6.0583 H   0  0  0  0  0  0  0  0  0  0  0  0
   -3.9763   11.3464    8.0386 H   0  0  0  0  0  0  0  0  0  0  0  0
   -6.1358   11.3593    9.1607 H   0  0  0  0  0  0  0  0  0  0  0  0
   -8.1680   10.6559    7.9703 H   0  0  0  0  0  0  0  0  0  0  0  0
   -8.0062    9.9274    5.6028 H   0  0  0  0  0  0  0  0  0  0  0  0
   -5.7829    9.9249    4.4901 H   0  0  0  0  0  0  0  0  0  0  0  0
   -1.5045    9.6279    4.4264 H   0  0  0  0  0  0  0  0  0  0  0  0
   -2.4524    8.9057    3.1138 H   0  0  0  0  0  0  0  0  0  0  0  0
   -0.7629   10.0491    2.0327 H   0  0  0  0  0  0  0  0  0  0  0  0
   -0.8010   11.4468    3.1283 H   0  0  0  0  0  0  0  0  0  0  0  0
   -2.2112   11.6024   -1.6554 H   0  0  0  0  0  0  0  0  0  0  0  0
   -1.7561   10.0183   -0.9111 H   0  0  0  0  0  0  0  0  0  0  0  0
  1  2  1  0
  2  3  1  0
  3  4  2  0
  4  5  1  0
  5  6  2  0
  6  7  1  0
  7  8  2  0
  8  9  1  0
  9 10  1  0
  6 11  1  0
 11 12  2  0
 11 13  1  0
 13 14  1  0
 14 15  1  0
 15 16  1  0
 16 17  1  0
 17 18  1  0
 18 19  1  0
 19 20  1  0
 20 21  2  0
 21 22  1  0
 22 23  2  0
 23 24  1  0
 24 25  2  0
 18 26  1  0
 26 27  1  0
 13 28  1  0
  8  3  1  0
 27 15  1  0
 28  5  1  0
 25 20  1  0
  1 29  1  0
  1 30  1  0
  1 31  1  0
  4 32  1  0
  7 33  1  0
 10 34  1  0
 10 35  1  0
 10 36  1  0
 13 37  1  1
 14 38  1  0
 14 39  1  0
 15 40  1  0
 16 41  1  0
 16 42  1  0
 17 43  1  0
 17 44  1  0
 19 45  1  0
 19 46  1  0
 21 47  1  0
 22 48  1  0
 23 49  1  0
 24 50  1  0
 25 51  1  0
 26 52  1  0
 26 53  1  0
 27 54  1  0
 27 55  1  0
 28 56  1  0
 28 57  1  0
M  END
$$$$
