
     RDKit          3D

 44 45  0  0  0  0  0  0  0  0999 V2000
   -7.7118    5.0179  -12.5629 C   0  0  0  0  0  0  0  0  0  0  0  0
   -6.3431    5.5416  -12.1436 C   0  0  0  0  0  0  0  0  0  0  0  0
   -6.4621    6.6488  -11.2688 N   0  0  0  0  0  0  0  0  0  0  0  0
   -5.2563    7.2027  -10.7501 C   0  0  1  0  0  0  0  0  0  0  0  0
   -4.4128    7.7668  -11.8270 C   0  0  0  0  0  0  0  0  0  0  0  0
   -3.0383    8.0466  -11.4691 N   0  0  0  0  0  0  0  0  0  0  0  0
   -2.1604    7.0550  -11.9583 C   0  0  0  0  0  0  0  0  0  0  0  0
   -0.8645    7.5884  -12.5131 C   0  0  0  0  0  0  0  0  0  0  0  0
   -0.0339    6.4160  -12.9916 C   0  0  0  0  0  0  0  0  0  0  0  0
    1.1608    6.9738  -13.5005 O   0  0  0  0  0  0  0  0  0  0  0  0
    2.0067    5.9766  -13.9726 C   0  0  0  0  0  0  0  0  0  0  0  0
   -2.8757    8.4286   -9.8001 S   0  0  0  0  0  6  0  0  0  0  0  0
   -1.9495    9.5952   -9.6205 O   0  0  0  0  0  0  0  0  0  0  0  0
   -2.3692    7.2428   -9.0051 O   0  0  0  0  0  0  0  0  0  0  0  0
   -4.4279    8.8792   -9.2015 C   0  0  0  0  0  0  0  0  0  0  0  0
   -5.1003   10.0180   -8.0294 S   0  0  0  0  0  0  0  0  0  0  0  0
   -6.9000    9.6060   -8.2637 C   0  0  0  0  0  0  0  0  0  0  0  0
   -8.1724   10.3157   -7.4523 S   0  0  0  0  0  6  0  0  0  0  0  0
   -8.2188   12.0208   -7.7279 N   0  0  0  0  0  0  0  0  0  0  0  0
   -8.0597   10.1101   -5.9536 O   0  0  0  0  0  0  0  0  0  0  0  0
   -9.4711    9.7051   -7.8858 O   0  0  0  0  0  0  0  0  0  0  0  0
   -6.7840    8.6205   -9.2347 C   0  0  0  0  0  0  0  0  0  0  0  0
   -5.6396    8.2357   -9.7157 C   0  0  0  0  0  0  0  0  0  0  0  0
   -8.4729    5.8333  -12.5836 H   0  0  0  0  0  0  0  0  0  0  0  0
   -7.6552    4.4753  -13.5285 H   0  0  0  0  0  0  0  0  0  0  0  0
   -8.0375    4.3069  -11.7881 H   0  0  0  0  0  0  0  0  0  0  0  0
   -5.8333    5.8537  -13.0807 H   0  0  0  0  0  0  0  0  0  0  0  0
   -5.7363    4.7645  -11.6638 H   0  0  0  0  0  0  0  0  0  0  0  0
   -7.2090    6.5037  -10.5674 H   0  0  0  0  0  0  0  0  0  0  0  0
   -4.7285    6.3558  -10.2175 H   0  0  0  0  0  0  0  0  0  0  0  0
   -4.8718    8.6863  -12.2453 H   0  0  0  0  0  0  0  0  0  0  0  0
   -4.3609    7.0483  -12.6644 H   0  0  0  0  0  0  0  0  0  0  0  0
   -2.6655    6.4923  -12.7741 H   0  0  0  0  0  0  0  0  0  0  0  0
   -1.9871    6.3035  -11.1421 H   0  0  0  0  0  0  0  0  0  0  0  0
   -0.2660    8.1608  -11.8076 H   0  0  0  0  0  0  0  0  0  0  0  0
   -1.1481    8.1827  -13.4284 H   0  0  0  0  0  0  0  0  0  0  0  0
   -0.5393    5.7835  -13.7253 H   0  0  0  0  0  0  0  0  0  0  0  0
    0.2809    5.8020  -12.0990 H   0  0  0  0  0  0  0  0  0  0  0  0
    2.2400    5.3017  -13.1265 H   0  0  0  0  0  0  0  0  0  0  0  0
    1.5205    5.4535  -14.8206 H   0  0  0  0  0  0  0  0  0  0  0  0
    2.9282    6.4481  -14.3300 H   0  0  0  0  0  0  0  0  0  0  0  0
   -7.9503   12.2095   -8.7174 H   0  0  0  0  0  0  0  0  0  0  0  0
   -7.4380   12.4352   -7.1484 H   0  0  0  0  0  0  0  0  0  0  0  0
   -7.8068    8.1967   -9.5537 H   0  0  0  0  0  0  0  0  0  0  0  0
  1  2  1  0
  2  3  1  0
  3  4  1  0
  4  5  1  0
  5  6  1  0
  6  7  1  0
  7  8  1  0
  8  9  1  0
  9 10  1  0
 10 11  1  0
  6 12  1  0
 12 13  2  0
 12 14  2  0
 12 15  1  0
 15 16  1  0
 16 17  1  0
 17 18  1  0
 18 19  1  0
 18 20  2  0
 18 21  2  0
 17 22  2  0
 22 23  1  0
 23  4  1  0
 23 15  2  0
  1 24  1  0
  1 25  1  0
  1 26  1  0
  2 27  1  0
  2 28  1  0
  3 29  1  0
  4 30  1  1
  5 31  1  0
  5 32  1  0
  7 33  1  0
  7 34  1  0
  8 35  1  0
  8 36  1  0
  9 37  1  0
  9 38  1  0
 11 39  1  0
 11 40  1  0
 11 41  1  0
 19 42  1  0
 19 43  1  0
 22 44  1  0
M  END
$$$$
