
     RDKit          3D

 28 31  0  0  0  0  0  0  0  0999 V2000
   -7.6892   -0.0773    0.1797 C   0  0  0  0  0  0  0  0  0  0  0  0
   -6.7632    0.8629   -0.3448 O   0  0  0  0  0  0  0  0  0  0  0  0
   -5.4523    0.4691   -0.4705 C   0  0  0  0  0  0  0  0  0  0  0  0
   -4.9810   -0.8114   -0.1379 C   0  0  0  0  0  0  0  0  0  0  0  0
   -3.6335   -1.0900   -0.3042 C   0  0  0  0  0  0  0  0  0  0  0  0
   -2.7834   -0.1150   -0.8010 C   0  0  0  0  0  0  0  0  0  0  0  0
   -3.2062    1.1542   -1.1499 C   0  0  0  0  0  0  0  0  0  0  0  0
   -4.5607    1.4545   -0.9807 C   0  0  0  0  0  0  0  0  0  0  0  0
   -5.1226    2.6728   -1.2785 O   0  0  0  0  0  0  0  0  0  0  0  0
   -4.2694    3.6775   -1.8096 C   0  0  0  0  0  0  0  0  0  0  0  0
   -1.4394   -0.6714   -0.8717 C   0  0  0  0  0  0  0  0  0  0  0  0
   -0.5044   -0.0980   -1.4013 O   0  0  0  0  0  0  0  0  0  0  0  0
   -1.4174   -2.0356   -0.2076 C   0  0  1  0  0  0  0  0  0  0  0  0
   -0.7383   -2.0431    1.1708 C   0  0  0  0  0  0  0  0  0  0  0  0
    0.7638   -1.7071    1.2821 C   0  0  0  0  0  0  0  0  0  0  0  0
    1.0503   -0.2154    1.4925 C   0  0  0  0  0  0  0  0  0  0  0  0
    2.5332    0.0272    1.8316 C   0  0  0  0  0  0  0  0  0  0  0  0
    3.4307   -0.9969    1.2876 N   0  0  0  0  0  0  0  0  0  0  0  0
    4.8518   -0.6379    1.3433 C   0  0  0  0  0  0  0  0  0  0  0  0
    5.3113    0.5063    0.4631 C   0  0  0  0  0  0  0  0  0  0  0  0
    5.4081    1.8085    0.9774 C   0  0  0  0  0  0  0  0  0  0  0  0
    5.8372    2.8636    0.1702 C   0  0  0  0  0  0  0  0  0  0  0  0
    6.1789    2.6299   -1.1600 C   0  0  0  0  0  0  0  0  0  0  0  0
    6.0940    1.3415   -1.6831 C   0  0  0  0  0  0  0  0  0  0  0  0
    5.6653    0.2857   -0.8763 C   0  0  0  0  0  0  0  0  0  0  0  0
    2.9765   -1.5011   -0.0020 C   0  0  0  0  0  0  0  0  0  0  0  0
    1.6554   -2.2716    0.1613 C   0  0  0  0  0  0  0  0  0  0  0  0
   -2.9262   -2.3873   -0.0688 C   0  0  0  0  0  0  0  0  0  0  0  0
  1  2  1  0
  2  3  1  0
  3  4  2  0
  4  5  1  0
  5  6  2  0
  6  7  1  0
  7  8  2  0
  8  9  1  0
  9 10  1  0
  6 11  1  0
 11 12  2  0
 11 13  1  0
 13 14  1  1
 14 15  1  0
 15 16  1  0
 16 17  1  0
 17 18  1  0
 18 19  1  0
 19 20  1  0
 20 21  2  0
 21 22  1  0
 22 23  2  0
 23 24  1  0
 24 25  2  0
 18 26  1  0
 26 27  1  0
 13 28  1  0
  8  3  1  0
 27 15  1  0
 28  5  1  0
 25 20  1  0
M  END
$$$$
